#HF/6-31G(d) cube(100,orbitals,read)

Anthraqunone

0   1
C   2.326200  -1.346105  -0.039824
C   3.491300  -0.680405  -0.058824
C   3.495300   0.659595  -0.057824
C   2.334300   1.332195  -0.038824
C   1.157900  -0.675505  -0.019824
C   1.161900   0.668795  -0.019824
C   0.004100   1.380595  -0.000824
C  -0.004100  -1.380505  -0.000824
C  -1.162000  -0.668605   0.018176
C  -1.157900   0.675595   0.018176
C  -2.334200  -1.332105   0.039176
C  -3.495301  -0.659705   0.059176
C  -3.491300   0.680395   0.059176
C  -2.326300   1.345995   0.039176
O   0.008328   2.804789  -0.000824
O  -0.008329  -2.804698  -0.001998
H   2.373435  -2.436081  -0.040812
H   4.435484  -1.226799  -0.074633
H   4.442781   1.200279  -0.072645
H   2.388057   2.421870  -0.038824
H  -2.387849  -2.421785   0.040164
H  -4.442719  -1.200410   0.076963
H  -4.435557   1.226634   0.075975
H  -2.373527   2.435972   0.040164

anthraquinone_HOMO.cube
HOMO


