#HF/6-31G cube(80,density,read)

Benzene

0    1
C   -0.700750  -1.213333   0.000000
C    0.701250  -1.213333   0.000000
C    1.401250  -0.000333   0.000000
C    0.700250   1.213667   0.000000
C   -0.700750   1.213667   0.000000
C   -1.401750  -0.000333   0.000000
H   -1.245750  -2.157333   0.000000
H    1.246250  -2.157333   0.000000
H    2.491250  -0.000333   0.000000
H    1.246250   2.157667   0.000000
H   -1.245750   2.157667   0.000000
H   -2.491750  -0.000333   0.000000

Benzene.cube

