#HF/6-31G(d) cube(100,density,read)

Cubane

0    1
C   -0.775   -0.775   -0.775
C    0.775   -0.775   -0.775
C    0.775    0.775   -0.775
C   -0.775    0.775   -0.775
C   -0.775    0.775    0.775
C    0.775    0.775    0.775
C    0.775   -0.775    0.775
C   -0.775   -0.775    0.775
H   -1.404   -1.404   -1.404
H    1.404   -1.404   -1.404
H    1.404    1.404   -1.404
H   -1.404    1.404   -1.404
H   -1.404    1.404    1.404
H    1.404    1.404    1.404
H    1.404   -1.404    1.404
H   -1.404   -1.404    1.404

Cubane.cube

